
Circuit: * spicenetlist

Doing analysis at TEMP = 0.000000 and TNOM = 27.000000


No. of Data Rows : 3001
ASCII raw file

Note: No ".plot", ".print", or ".fourier" lines; no simulations run
